          13

 C   -0.6461064630    0.0965643205   -0.0000000024
 C   -2.2208694361    0.0965696961    0.0000000036
 C   -2.2208604680    1.4260128907   -0.0000000036
 C   -0.6461053187    1.4260088119    0.0000000024
 H   -2.9834474856   -0.6682139020   -0.0000000000
 H    0.1164643319   -0.6682245631   -0.0000000005
 H   -2.9834188983    2.1908129565    0.0000000000
 H    0.1164588734    2.1908032484    0.0000000005
X    -1.4334962173   -3.0632142658    2.6248251355
X    -1.4334962372   -3.0632142469   -2.6248251571
X    -1.4334832142    0.7460054816    2.6248251493
X    -1.4334832340    0.7460055005   -2.6248251434
Be    -1.4334962654   -3.0784964959    3.7042407285
